
OS:Version,
  {5a23f2eb-2a9a-43be-936f-c1ab8ddaf5fc}, !- Handle
  3.4.0;                                  !- Version Identifier

OS:Schedule:Constant,
  {5362ad87-1b35-4912-9c6a-e637bd4c4ffd}, !- Handle
  Always On Discrete,                     !- Name
  {774a102c-20dc-4c33-8bcd-fcfec334c425}, !- Schedule Type Limits Name
  1;                                      !- Value

OS:ScheduleTypeLimits,
  {774a102c-20dc-4c33-8bcd-fcfec334c425}, !- Handle
  Always On Discrete Limits,              !- Name
  0,                                      !- Lower Limit Value
  1,                                      !- Upper Limit Value
  Discrete,                               !- Numeric Type
  Availability;                           !- Unit Type

OS:Building,
  {08678ddd-175a-469b-9626-2f02c40b6916}, ! Handle
  Apartment 1,                            ! Name
  ,                                       ! Building Type
  -0,                                     ! North Axis
  ,                                       ! Nominal Floor to Floor Height
  ,                                       ! Space Type Name
  {c95977b5-84a0-48fb-8a3a-6ee9daf90429}, ! Default Construction Set Name
  ;                                       ! Default Schedule Set Name

OS:Facility,
  {cf302468-3453-4b1f-a1ed-b05a0da3cd5c}; ! Handle

OS:Material,
  {c5f0408f-a551-46fc-bb2a-66e8fe03a7e4}, !- Handle
  Roof Membrane,                          !- Name
  VeryRough,                              !- Roughness
  0.0094999999999999998,                  !- Thickness {m}
  0.16,                                   !- Conductivity {W/m-K}
  1121.29,                                !- Density {kg/m3}
  1460,                                   !- Specific Heat {J/kg-K}
  0.90000000000000002,                    !- Thermal Absorptance
  0.69999999999999996,                    !- Solar Absorptance
  0.69999999999999996;                    !- Visible Absorptance

OS:Rendering:Color,
  {3ac3ab6e-838a-4987-a923-7ed16f076f1c}, ! Handle
  000 ExtSlabCarpet 4in ClimateZone 1-8 Color, ! Name
  198.9,                                  ! Rendering Red Value
  0.0,                                    ! Rendering Green Value
  0.0;                                    ! Rendering Blue Value

OS:Rendering:Color,
  {336262c3-ed6f-4bd5-bd5b-d932449932e2}, ! Handle
  000 Exterior Door Color,                ! Name
  124.3125,                               ! Rendering Red Value
  74.5875,                                ! Rendering Green Value
  89.505;                                 ! Rendering Blue Value

OS:Rendering:Color,
  {5258d57d-6d17-494e-9c3b-4c56919ea2f6}, ! Handle
  000 Exterior Window Color,              ! Name
  198.9,                                  ! Rendering Red Value
  0.0,                                    ! Rendering Green Value
  59.6699999999999,                       ! Rendering Blue Value
  ;                                       ! Rendering Alpha Value

OS:Rendering:Color,
  {d215b2b0-0241-4ad0-b07c-0df46d01f486}, ! Handle
  000 Interior Ceiling Color,             ! Name
  219.096,                                ! Rendering Red Value
  142.8,                                  ! Rendering Green Value
  255.0;                                  ! Rendering Blue Value

OS:Rendering:Color,
  {10b662a5-17eb-4067-8ab6-1c6c92619ced}, ! Handle
  000 Interior Door Color,                ! Name
  168.606,                                ! Rendering Red Value
  255.0,                                  ! Rendering Green Value
  142.8;                                  ! Rendering Blue Value

OS:Rendering:Color,
  {994d202e-504a-4148-84f1-46b26fd74ce7}, ! Handle
  000 Interior Floor Color,               ! Name
  255.0,                                  ! Rendering Red Value
  142.8,                                  ! Rendering Green Value
  142.8;                                  ! Rendering Blue Value

OS:Rendering:Color,
  {3345a47f-3148-4884-93eb-8d5a5a0a785d}, ! Handle
  000 Interior Partition Color,           ! Name
  165.24,                                 ! Rendering Red Value
  142.8,                                  ! Rendering Green Value
  255.0;                                  ! Rendering Blue Value

OS:Rendering:Color,
  {a4e4bf50-8f71-4600-993d-4ea1ca2afada}, ! Handle
  000 Interior Wall Color,                ! Name
  142.8,                                  ! Rendering Red Value
  201.144,                                ! Rendering Green Value
  255.0;                                  ! Rendering Blue Value

OS:Rendering:Color,
  {6a66ec3d-9ebd-481c-931c-fad8647d508d}, ! Handle
  000 Interior Window Color,              ! Name
  235.926,                                ! Rendering Red Value
  255.0,                                  ! Rendering Green Value
  142.8;                                  ! Rendering Blue Value

OS:Rendering:Color,
  {00efa528-c739-4942-bb54-971e350d5081}, ! Handle
  ASHRAE 189.1-2009 ExtRoof IEAD ClimateZone 2-5 Color, ! Name
  150.1695,                               ! Rendering Red Value
  14.9175,                                ! Rendering Green Value
  183.9825,                               ! Rendering Blue Value
  ;                                       ! Rendering Alpha Value

OS:Rendering:Color,
  {6d1599e9-d10c-498e-a73e-8cbb2dcd9066}, ! Handle
  ASHRAE 189.1-2009 ExtWall SteelFrame ClimateZone 4-8 Color, ! Name
  21.1139999999998,                       ! Rendering Red Value
  17.2125,                                ! Rendering Green Value
  212.2875;                               ! Rendering Blue Value

OS:Rendering:Color,
  {d43e1bbd-8f3c-4474-9188-3505c2d039e8}, ! Handle
  ASHRAE 189.1-2009 ExtWindow ClimateZone 4-5 Color, ! Name
  109.6653,                               ! Rendering Red Value
  238.935,                                ! Rendering Green Value
  56.865,                                 ! Rendering Blue Value
  ;                                       ! Rendering Alpha Value

OS:Rendering:Color,
  {f16d79c6-23ca-4509-a014-2175d9ec5914}, ! Handle
  Air Wall Color,                         ! Name
  255,                                    ! Rendering Red Value
  69,                                     ! Rendering Green Value
  0,                                      ! Rendering Blue Value
  ;                                       ! Rendering Alpha Value

OS:RunPeriodControl:DaylightSavingTime,
  {693caa13-3e74-48ae-8045-a3a848c2807a}, ! Handle
  2nd Sunday in March,                    ! Start Date
  1st Sunday in November;                 ! End Date

OS:RunPeriodControl:SpecialDays,
  {01427c50-9f95-4617-88ea-a0e9186837e8}, ! Handle
  Christmas,                              ! Name
  December 25,                            ! Start Date
  1,                                      ! Duration
  Holiday;                                ! Special Day Type

OS:RunPeriodControl:SpecialDays,
  {4f7bd1ef-5d66-416c-b7cd-645da80eb8db}, ! Handle
  Columbus Day,                           ! Name
  2nd Monday in October,                  ! Start Date
  1,                                      ! Duration
  Holiday;                                ! Special Day Type

OS:RunPeriodControl:SpecialDays,
  {c89b3655-49ce-4e5d-97c9-b2095fd6db9c}, ! Handle
  Independence Day,                       ! Name
  July 4,                                 ! Start Date
  1,                                      ! Duration
  Holiday;                                ! Special Day Type

OS:RunPeriodControl:SpecialDays,
  {bc7c5297-77e3-4f10-bc89-f8f14a796e35}, ! Handle
  Labor Day,                              ! Name
  1st Monday in September,                ! Start Date
  1,                                      ! Duration
  Holiday;                                ! Special Day Type

OS:RunPeriodControl:SpecialDays,
  {d5293439-b4e0-42c4-ae8f-39daf0fa9e60}, ! Handle
  MLK Day,                                ! Name
  3rd Monday in January,                  ! Start Date
  1,                                      ! Duration
  Holiday;                                ! Special Day Type

OS:RunPeriodControl:SpecialDays,
  {5053f38e-2fe7-4c10-afbd-cc1965219b26}, ! Handle
  Memorial Day,                           ! Name
  Last Monday in May,                     ! Start Date
  1,                                      ! Duration
  Holiday;                                ! Special Day Type

OS:RunPeriodControl:SpecialDays,
  {246c2b99-5ff6-48d4-a556-71bb50fed76b}, ! Handle
  New Years Day,                          ! Name
  January 1,                              ! Start Date
  1,                                      ! Duration
  Holiday;                                ! Special Day Type

OS:RunPeriodControl:SpecialDays,
  {086bd7a3-d72e-44c0-acc9-70d041c4c2f5}, ! Handle
  Presidents Day,                         ! Name
  3rd Monday in February,                 ! Start Date
  1,                                      ! Duration
  Holiday;                                ! Special Day Type

OS:RunPeriodControl:SpecialDays,
  {675b176b-6342-4e06-9b76-f297a6b58c55}, ! Handle
  Thanksgiving,                           ! Name
  4th Thursday in November,               ! Start Date
  1,                                      ! Duration
  Holiday;                                ! Special Day Type

OS:RunPeriodControl:SpecialDays,
  {4d4d7ba3-4fd8-4f69-9194-9b7ffe61cc8d}, ! Handle
  Veterans Day,                           ! Name
  November 11,                            ! Start Date
  1,                                      ! Duration
  Holiday;                                ! Special Day Type

OS:ScheduleTypeLimits,
  {a36b9707-67e9-4ac7-87d8-bca1cdc8d977}, ! Handle
  Any Number;                             ! Name

OS:ScheduleTypeLimits,
  {d5de7a23-6ee1-4151-a263-1bfb8dd0a2ce}, ! Handle
  Control Type,                           ! Name
  0,                                      ! Lower Limit Value
  4,                                      ! Upper Limit Value
  DISCRETE;                               ! Numeric Type

OS:ScheduleTypeLimits,
  {34a5bba4-16c2-43a7-83db-1840d06ef230}, ! Handle
  Fraction,                               ! Name
  0,                                      ! Lower Limit Value
  1,                                      ! Upper Limit Value
  CONTINUOUS;                             ! Numeric Type

OS:ScheduleTypeLimits,
  {860056cb-f9ed-447b-aaaf-630c68f1cc0e}, ! Handle
  On/Off,                                 ! Name
  0,                                      ! Lower Limit Value
  1,                                      ! Upper Limit Value
  DISCRETE;                               ! Numeric Type

OS:SimulationControl,
  {657ba578-29ab-439c-87b6-218865343bf2}, ! Handle
  No,                                     ! Do Zone Sizing Calculation
  No,                                     ! Do System Sizing Calculation
  No,                                     ! Do Plant Sizing Calculation
  No,                                     ! Run Simulation for Sizing Periods
  Yes,                                    ! Run Simulation for Weather File Run Periods
  0.040000000000000001,                   ! Loads Convergence Tolerance Value
  0.40000000000000002,                    ! Temperature Convergence Tolerance Value
  FullExterior,                           ! Solar Distribution
  25;                                     ! Maximum Number of Warmup Days

OS:ThermostatSetpoint:DualSetpoint,
  {c88ac18f-c615-49c3-9fcc-d0b9ae67be58}, ! Handle
  Medium Office Thermostat,               ! Name
  ,                                       ! Heating Setpoint Temperature Schedule Name
  ;                                       ! Cooling Setpoint Temperature Schedule Name

OS:Timestep,
  {8a10f874-3682-42ca-98c2-f4b68d8deb26}, ! Handle
  4;                                      ! Number of Timesteps per Hour

OS:ScheduleTypeLimits,
  {d0f0b867-4833-4c23-97b4-2d2103a11327}, ! Handle
  ActivityLevel,                          ! Name
  0,                                      ! Lower Limit Value {BasedOnField A4}
  ,                                       ! Upper Limit Value {BasedOnField A4}
  Continuous,                             ! Numeric Type
  ActivityLevel;                          ! Unit Type

OS:ScheduleTypeLimits,
  {b2323053-24fd-48bf-91c8-981699edab0b}, ! Handle
  Temperature 1,                          ! Name
  ,                                       ! Lower Limit Value {BasedOnField A4}
  ,                                       ! Upper Limit Value {BasedOnField A4}
  Continuous,                             ! Numeric Type
  Temperature;                            ! Unit Type

OS:ScheduleTypeLimits,
  {a1b286a2-734b-4de1-aca9-74651817c459}, ! Handle
  Temperature 2,                          ! Name
  ,                                       ! Lower Limit Value {BasedOnField A4}
  ,                                       ! Upper Limit Value {BasedOnField A4}
  Continuous,                             ! Numeric Type
  Temperature;                            ! Unit Type

OS:YearDescription,
  {809b5ab2-87e8-4866-bec9-d980e49142d1}, !- Handle
  ,                                       !- Calendar Year
  Monday,                                 !- Day of Week for Start Day
  ;                                       !- Is Leap Year

OS:RadianceParameters,
  {6b4f141f-2b97-4857-80d9-5d72d97d7ccf}, !- Handle
  1,                                      !- Accumulated Rays per Record
  0,                                      !- Direct Threshold
  1,                                      !- Direct Certainty
  1,                                      !- Direct Jitter
  1,                                      !- Direct Pretest
  6,                                      !- Ambient Bounces VMX
  2,                                      !- Ambient Bounces DMX
  4050,                                   !- Ambient Divisions VMX
  512,                                    !- Ambient Divisions DMX
  256,                                    !- Ambient Supersamples
  0.001,                                  !- Limit Weight VMX
  0.001,                                  !- Limit Weight DMX
  500,                                    !- Klems Sampling Density
  146;                                    !- Sky Discretization Resolution

OS:Sizing:Parameters,
  {d4977be5-90da-4893-bf51-7f32e132286d}, !- Handle
  1.25,                                   !- Heating Sizing Factor
  1.15;                                   !- Cooling Sizing Factor

OS:ProgramControl,
  {4d1bd9b8-f644-493b-88d0-fde059e28921}; !- Handle

OS:OutputControl:ReportingTolerances,
  {9af3a4f7-b87b-4a80-9d61-d601beac3778}; !- Handle

OS:ConvergenceLimits,
  {51e6c321-d40b-4d80-a3ae-90b13ad19198}; !- Handle

OS:ShadowCalculation,
  {d74ecdf3-3b0f-461d-892c-52b8388241ec}, !- Handle
  PolygonClipping,                        !- Shading Calculation Method
  ,                                       !- Shading Calculation Update Frequency Method
  7,                                      !- Shading Calculation Update Frequency
  15000,                                  !- Maximum Figures in Shadow Overlap Calculations
  ,                                       !- Polygon Clipping Algorithm
  512,                                    !- Pixel Counting Resolution
  ,                                       !- Sky Diffuse Modeling Algorithm
  No,                                     !- Output External Shading Calculation Results
  No,                                     !- Disable Self-Shading Within Shading Zone Groups
  No;                                     !- Disable Self-Shading From Shading Zone Groups to Other Zones

OS:SurfaceConvectionAlgorithm:Inside,
  {4ec59426-8c18-45e6-8431-a55fda2ac7cc}, !- Handle
  TARP;                                   !- Algorithm

OS:SurfaceConvectionAlgorithm:Outside,
  {83e2dade-3899-4935-b948-69ebf2ca693e}, !- Handle
  DOE-2;                                  !- Algorithm

OS:HeatBalanceAlgorithm,
  {7d3e9283-4288-43e2-8034-56cacddd37bf}, !- Handle
  ConductionTransferFunction,             !- Algorithm
  200;                                    !- Surface Temperature Upper Limit {C}

OS:ZoneAirHeatBalanceAlgorithm,
  {493f116a-217a-4796-8524-e45edfa1e24d}, !- Handle
  AnalyticalSolution;                     !- Algorithm

OS:ZoneAirContaminantBalance,
  {f2206c1f-4a55-4304-be60-737bf306dd37}; !- Handle

OS:ZoneCapacitanceMultiplier:ResearchSpecial,
  {4b6bc693-11f3-4a5d-b34c-0c10088381bd}, !- Handle
  ,                                       !- Temperature Capacity Multiplier
  ,                                       !- Humidity Capacity Multiplier
  ;                                       !- Carbon Dioxide Capacity Multiplier

OS:RunPeriod,
  {11d72bbb-8a92-40a6-b1b9-093720c16838}, !- Handle
  Run Period 1,                           !- Name
  1,                                      !- Begin Month
  1,                                      !- Begin Day of Month
  12,                                     !- End Month
  31,                                     !- End Day of Month
  ,                                       !- Use Weather File Holidays and Special Days
  ,                                       !- Use Weather File Daylight Saving Period
  ,                                       !- Apply Weekend Holiday Rule
  ,                                       !- Use Weather File Rain Indicators
  ,                                       !- Use Weather File Snow Indicators
  ;                                       !- Number of Times Runperiod to be Repeated

OS:Site,
  {b9fb985a-2db6-4b71-ad23-94b44119818b}, !- Handle
  Site 1,                                 !- Name
  ,                                       !- Latitude {deg}
  ,                                       !- Longitude {deg}
  ,                                       !- Time Zone {hr}
  ,                                       !- Elevation {m}
  ;                                       !- Terrain

OS:ClimateZones,
  {93f92d6b-f773-4912-9c04-8c86a8a45200}, !- Handle
  ASHRAE,                                 !- Climate Zone Institution Name 1
  ANSI/ASHRAE Standard 169,               !- Climate Zone Document Name 1
  2006,                                   !- Climate Zone Document Year 1
  ,                                       !- Climate Zone Value 1
  CEC,                                    !- Climate Zone Institution Name 2
  California Climate Zone Descriptions,   !- Climate Zone Document Name 2
  1995,                                   !- Climate Zone Document Year 2
  ;                                       !- Climate Zone Value 2

OS:LifeCycleCost:Parameters,
  {1a1279d9-add7-4620-9c45-c91ffae4d1b3}, !- Handle
  FEMP,                                   !- Analysis Type
  ,                                       !- Discounting Convention
  ,                                       !- Inflation Approach
  ,                                       !- Real Discount Rate
  ,                                       !- Nominal Discount Rate
  ,                                       !- Inflation
  ,                                       !- Base Date Month
  ,                                       !- Base Date Year
  ,                                       !- Service Date Month
  ,                                       !- Service Date Year
  ,                                       !- Length of Study Period in Years
  ,                                       !- Tax Rate
  ,                                       !- Depreciation Method
  Yes;                                    !- Use NIST Fuel Escalation Rates

OS:StandardsInformation:Material,
  {78e5073c-09a1-4b82-baf8-674ab5261498}, !- Handle
  {c5f0408f-a551-46fc-bb2a-66e8fe03a7e4}; !- Material Name

OS:Rendering:Color,
  {8dea9b72-f8e5-486f-b0c2-d7d6358e7970}, !- Handle
  Rendering Color 17,                     !- Name
  230,                                    !- Rendering Red Value
  157,                                    !- Rendering Green Value
  120;                                    !- Rendering Blue Value

OS:DesignSpecification:OutdoorAir,
  {77221a82-87a4-4d1e-a6e6-52516fe793cc}, !- Handle
  189.1-2009 - Office - BreakRoom - CZ4-8 Ventilation, !- Name
  Sum,                                    !- Outdoor Air Method
  0.007079211648,                         !- Outdoor Air Flow per Person {m3/s-person}
  ,                                       !- Outdoor Air Flow per Floor Area {m3/s-m2}
  ,                                       !- Outdoor Air Flow Rate {m3/s}
  ,                                       !- Outdoor Air Flow Air Changes per Hour {1/hr}
  ;                                       !- Outdoor Air Flow Rate Fraction Schedule Name

OS:Rendering:Color,
  {d106d8d4-c266-4412-8383-eb849ccbce97}, !- Handle
  Rendering Color 19,                     !- Name
  230,                                    !- Rendering Red Value
  196,                                    !- Rendering Green Value
  120;                                    !- Rendering Blue Value

OS:DesignSpecification:OutdoorAir,
  {0542512d-0630-449e-9f2e-6f3ffb0e67d0}, !- Handle
  189.1-2009 - Office - Conference - CZ4-8 Ventilation, !- Name
  Sum,                                    !- Outdoor Air Method
  0.009438948864,                         !- Outdoor Air Flow per Person {m3/s-person}
  ,                                       !- Outdoor Air Flow per Floor Area {m3/s-m2}
  ,                                       !- Outdoor Air Flow Rate {m3/s}
  ,                                       !- Outdoor Air Flow Air Changes per Hour {1/hr}
  ;                                       !- Outdoor Air Flow Rate Fraction Schedule Name

OS:Rendering:Color,
  {5c5f5f13-ed86-49e9-a0e0-87a8c9c1d77f}, !- Handle
  Rendering Color 20,                     !- Name
  169,                                    !- Rendering Red Value
  31,                                     !- Rendering Green Value
  31;                                     !- Rendering Blue Value

OS:DesignSpecification:OutdoorAir,
  {af74845d-c21b-4db7-a83d-69fa88c834d7}, !- Handle
  189.1-2009 - Office - Corridor - CZ4-8 Ventilation, !- Name
  Sum,                                    !- Outdoor Air Method
  ,                                       !- Outdoor Air Flow per Person {m3/s-person}
  0.000254,                               !- Outdoor Air Flow per Floor Area {m3/s-m2}
  ,                                       !- Outdoor Air Flow Rate {m3/s}
  ,                                       !- Outdoor Air Flow Air Changes per Hour {1/hr}
  ;                                       !- Outdoor Air Flow Rate Fraction Schedule Name

OS:Rendering:Color,
  {a92300ae-7679-454d-9f17-435fe28adc24}, !- Handle
  Rendering Color 21,                     !- Name
  41,                                     !- Rendering Red Value
  31,                                     !- Rendering Green Value
  169;                                    !- Rendering Blue Value

OS:DesignSpecification:OutdoorAir,
  {5ae5dc2b-9e69-4f8c-afe7-fa70f74c5830}, !- Handle
  189.1-2009 - Office - Elec/MechRoom - CZ4-8 Ventilation, !- Name
  Sum,                                    !- Outdoor Air Method
  0.009438948864,                         !- Outdoor Air Flow per Person {m3/s-person}
  ,                                       !- Outdoor Air Flow per Floor Area {m3/s-m2}
  ,                                       !- Outdoor Air Flow Rate {m3/s}
  ,                                       !- Outdoor Air Flow Air Changes per Hour {1/hr}
  ;                                       !- Outdoor Air Flow Rate Fraction Schedule Name

OS:Rendering:Color,
  {976f2021-a94e-424e-a277-85d824b2c34c}, !- Handle
  Rendering Color 23,                     !- Name
  230,                                    !- Rendering Red Value
  157,                                    !- Rendering Green Value
  120;                                    !- Rendering Blue Value

OS:DesignSpecification:OutdoorAir,
  {fdc72dfc-1a1d-40e0-af52-1ec8c6a66f04}, !- Handle
  189.1-2009 - Office - Lobby - CZ4-8 Ventilation, !- Name
  Sum,                                    !- Outdoor Air Method
  0.007079211648,                         !- Outdoor Air Flow per Person {m3/s-person}
  ,                                       !- Outdoor Air Flow per Floor Area {m3/s-m2}
  ,                                       !- Outdoor Air Flow Rate {m3/s}
  ,                                       !- Outdoor Air Flow Air Changes per Hour {1/hr}
  ;                                       !- Outdoor Air Flow Rate Fraction Schedule Name

OS:Rendering:Color,
  {cc0ff6ff-54a8-4437-847d-84846e98478b}, !- Handle
  Rendering Color 22,                     !- Name
  41,                                     !- Rendering Red Value
  31,                                     !- Rendering Green Value
  169;                                    !- Rendering Blue Value

OS:DesignSpecification:OutdoorAir,
  {392b87c0-4e5e-4fc2-b5b9-c8e75dd1dd1d}, !- Handle
  189.1-2009 - Office - IT_Room - CZ4-8 Ventilation, !- Name
  Sum,                                    !- Outdoor Air Method
  ,                                       !- Outdoor Air Flow per Person {m3/s-person}
  0.000254,                               !- Outdoor Air Flow per Floor Area {m3/s-m2}
  ,                                       !- Outdoor Air Flow Rate {m3/s}
  ,                                       !- Outdoor Air Flow Air Changes per Hour {1/hr}
  ;                                       !- Outdoor Air Flow Rate Fraction Schedule Name

OS:Rendering:Color,
  {65f079e7-94cb-4b8f-a2fa-981e7b393e6a}, !- Handle
  Rendering Color 26,                     !- Name
  169,                                    !- Rendering Red Value
  169,                                    !- Rendering Green Value
  31;                                     !- Rendering Blue Value

OS:DesignSpecification:OutdoorAir,
  {629e656c-f0e6-41a9-9a50-7764498d5ec2}, !- Handle
  189.1-2009 - Office - Restroom - CZ4-8 Ventilation, !- Name
  Sum,                                    !- Outdoor Air Method
  ,                                       !- Outdoor Air Flow per Person {m3/s-person}
  0.0048768,                              !- Outdoor Air Flow per Floor Area {m3/s-m2}
  ,                                       !- Outdoor Air Flow Rate {m3/s}
  ,                                       !- Outdoor Air Flow Air Changes per Hour {1/hr}
  ;                                       !- Outdoor Air Flow Rate Fraction Schedule Name

OS:Rendering:Color,
  {3fb988b2-7556-4eb2-b903-3cb63f8236f7}, !- Handle
  Rendering Color 27,                     !- Name
  230,                                    !- Rendering Red Value
  157,                                    !- Rendering Green Value
  120;                                    !- Rendering Blue Value

OS:DesignSpecification:OutdoorAir,
  {c5a70e4b-489f-4aef-bc07-7f730cec7c59}, !- Handle
  189.1-2009 - Office - Stair - CZ4-8 Ventilation, !- Name
  Sum,                                    !- Outdoor Air Method
  ,                                       !- Outdoor Air Flow per Person {m3/s-person}
  0.000254,                               !- Outdoor Air Flow per Floor Area {m3/s-m2}
  ,                                       !- Outdoor Air Flow Rate {m3/s}
  ,                                       !- Outdoor Air Flow Air Changes per Hour {1/hr}
  ;                                       !- Outdoor Air Flow Rate Fraction Schedule Name

OS:Rendering:Color,
  {3b634516-b8b2-4059-b7ff-8073d8ec9bd8}, !- Handle
  Rendering Color 31,                     !- Name
  120,                                    !- Rendering Red Value
  230,                                    !- Rendering Green Value
  199;                                    !- Rendering Blue Value

OS:DesignSpecification:OutdoorAir,
  {020bf6f5-3f91-4bb4-b7c4-2afe87e66844}, !- Handle
  189.1-2009 - Office - WholeBuilding - Md Office - CZ4-8 Ventilation, !- Name
  Sum,                                    !- Outdoor Air Method
  0.009438948864,                         !- Outdoor Air Flow per Person {m3/s-person}
  ,                                       !- Outdoor Air Flow per Floor Area {m3/s-m2}
  ,                                       !- Outdoor Air Flow Rate {m3/s}
  ,                                       !- Outdoor Air Flow Air Changes per Hour {1/hr}
  ;                                       !- Outdoor Air Flow Rate Fraction Schedule Name

OS:ScheduleTypeLimits,
  {4eedf8c4-a7e5-4d14-8972-8813f97e9cfe}, !- Handle
  ActivityLevel 13,                       !- Name
  0,                                      !- Lower Limit Value
  ,                                       !- Upper Limit Value
  Continuous,                             !- Numeric Type
  ActivityLevel;                          !- Unit Type

OS:Rendering:Color,
  {82ff4631-911d-425f-8837-3933948b63c8}, !- Handle
  Rendering Color 32,                     !- Name
  120,                                    !- Rendering Red Value
  230,                                    !- Rendering Green Value
  199;                                    !- Rendering Blue Value

OS:DesignSpecification:OutdoorAir,
  {384f0e40-5549-4968-90c3-9f1fa9db0a0e}, !- Handle
  189.1-2009 - Office - WholeBuilding - Sm Office - CZ4-8 Ventilation, !- Name
  Sum,                                    !- Outdoor Air Method
  0.009438948864,                         !- Outdoor Air Flow per Person {m3/s-person}
  ,                                       !- Outdoor Air Flow per Floor Area {m3/s-m2}
  ,                                       !- Outdoor Air Flow Rate {m3/s}
  ,                                       !- Outdoor Air Flow Air Changes per Hour {1/hr}
  ;                                       !- Outdoor Air Flow Rate Fraction Schedule Name

OS:ScheduleTypeLimits,
  {1d587628-9dc2-4974-bb00-dcb33bef88e6}, !- Handle
  Fractional,                             !- Name
  0,                                      !- Lower Limit Value
  1,                                      !- Upper Limit Value